data_image0
_cell_length_a       14.817
_cell_length_b       14.817
_cell_length_c       11.817
_cell_angle_alpha    90
_cell_angle_beta     90
_cell_angle_gamma    90

_symmetry_space_group_name_H-M    "P 1"
_symmetry_int_tables_number       1

loop_
  _symmetry_equiv_pos_as_xyz
  'x, y, z'

loop_
  _atom_site_label
  _atom_site_occupancy
  _atom_site_fract_x
  _atom_site_fract_y
  _atom_site_fract_z
  _atom_site_thermal_displace_type
  _atom_site_B_iso_or_equiv
  _atom_site_type_symbol
  _atom_site_charge
  O1       1.0000 0.62330  0.37960  0.60640  Biso   1.000  O  -0.5796466511302386
  O2       1.0000 0.60680  0.28720  0.74330  Biso   1.000  O  -0.5928610989076755
  C1       1.0000 0.59500  0.35870  0.69780  Biso   1.000  C  0.6420061004973793
  C2       1.0000 0.54050  0.42760  0.76070  Biso   1.000  C  -0.0268337938721902
  C3       1.0000 0.54050  0.42760  0.88070  Biso   1.000  C  -0.1646846407467549
  H1       1.0000 0.57040  0.37410  0.92520  Biso   1.000  H  0.1212905630639314
  O3       1.0000 0.12330  0.87960  0.10640  Biso   1.000  O  -0.5796466511302386
  O4       1.0000 0.10680  0.78720  0.24330  Biso   1.000  O  -0.5928610989076755
  C4       1.0000 0.09500  0.85870  0.19780  Biso   1.000  C  0.6420061004973793
  C5       1.0000 0.04050  0.92760  0.26070  Biso   1.000  C  -0.0268337938721902
  C6       1.0000 0.04050  0.92760  0.38070  Biso   1.000  C  -0.1646846407467549
  H2       1.0000 0.07040  0.87410  0.42520  Biso   1.000  H  0.1212905630639314
  O5       1.0000 0.87670  0.12040  0.10640  Biso   1.000  O  -0.5796466511302386
  O6       1.0000 0.89320  0.21280  0.24330  Biso   1.000  O  -0.5928610989076755
  C7       1.0000 0.90500  0.14130  0.19780  Biso   1.000  C  0.6420061004973793
  C8       1.0000 0.95950  0.07240  0.26070  Biso   1.000  C  -0.0268337938721902
  C9       1.0000 0.95950  0.07240  0.38070  Biso   1.000  C  -0.1646846407467549
  H3       1.0000 0.92960  0.12590  0.42520  Biso   1.000  H  0.1212905630639314
  O7       1.0000 0.37670  0.62040  0.60640  Biso   1.000  O  -0.5796466511302386
  O8       1.0000 0.39320  0.71280  0.74330  Biso   1.000  O  -0.5928610989076755
  C10      1.0000 0.40500  0.64130  0.69780  Biso   1.000  C  0.6420061004973793
  C11      1.0000 0.45950  0.57240  0.76070  Biso   1.000  C  -0.0268337938721902
  C12      1.0000 0.45950  0.57240  0.88070  Biso   1.000  C  -0.1646846407467549
  H4       1.0000 0.42960  0.62590  0.92520  Biso   1.000  H  0.1212905630639314
  O9       1.0000 0.62040  0.12330  0.85640  Biso   1.000  O  -0.5796466511302386
  O10      1.0000 0.71280  0.10680  0.99330  Biso   1.000  O  -0.5928610989076755
  C13      1.0000 0.64130  0.09500  0.94780  Biso   1.000  C  0.6420061004973793
  C14      1.0000 0.57240  0.04050  0.01070  Biso   1.000  C  -0.0268337938721902
  C15      1.0000 0.57240  0.04050  0.13070  Biso   1.000  C  -0.1646846407467549
  H5       1.0000 0.62590  0.07040  0.17520  Biso   1.000  H  0.1212905630639314
  O11      1.0000 0.12040  0.62330  0.35640  Biso   1.000  O  -0.5796466511302386
  O12      1.0000 0.21280  0.60680  0.49330  Biso   1.000  O  -0.5928610989076755
  C16      1.0000 0.14130  0.59500  0.44780  Biso   1.000  C  0.6420061004973793
  C17      1.0000 0.07240  0.54050  0.51070  Biso   1.000  C  -0.0268337938721902
  C18      1.0000 0.07240  0.54050  0.63070  Biso   1.000  C  -0.1646846407467549
  H6       1.0000 0.12590  0.57040  0.67520  Biso   1.000  H  0.1212905630639314
  O13      1.0000 0.87960  0.37670  0.35640  Biso   1.000  O  -0.5796466511302386
  O14      1.0000 0.78720  0.39320  0.49330  Biso   1.000  O  -0.5928610989076755
  C19      1.0000 0.85870  0.40500  0.44780  Biso   1.000  C  0.6420061004973793
  C20      1.0000 0.92760  0.45950  0.51070  Biso   1.000  C  -0.0268337938721902
  C21      1.0000 0.92760  0.45950  0.63070  Biso   1.000  C  -0.1646846407467549
  H7       1.0000 0.87410  0.42960  0.67520  Biso   1.000  H  0.1212905630639314
  O15      1.0000 0.37960  0.87670  0.85640  Biso   1.000  O  -0.5796466511302386
  O16      1.0000 0.28720  0.89320  0.99330  Biso   1.000  O  -0.5928610989076755
  C22      1.0000 0.35870  0.90500  0.94780  Biso   1.000  C  0.6420061004973793
  C23      1.0000 0.42760  0.95950  0.01070  Biso   1.000  C  -0.0268337938721902
  C24      1.0000 0.42760  0.95950  0.13070  Biso   1.000  C  -0.1646846407467549
  H8       1.0000 0.37410  0.92960  0.17520  Biso   1.000  H  0.1212905630639314
  O17      1.0000 0.87670  0.37960  0.14360  Biso   1.000  O  -0.5796466511302386
  O18      1.0000 0.89320  0.28720  0.00670  Biso   1.000  O  -0.5928610989076755
  C25      1.0000 0.90500  0.35870  0.05220  Biso   1.000  C  0.6420061004973793
  C26      1.0000 0.95950  0.42760  0.98930  Biso   1.000  C  -0.0268337938721902
  C27      1.0000 0.95950  0.42760  0.86930  Biso   1.000  C  -0.1646846407467549
  H9       1.0000 0.92960  0.37410  0.82480  Biso   1.000  H  0.1212905630639314
  O19      1.0000 0.37670  0.87960  0.64360  Biso   1.000  O  -0.5796466511302386
  O20      1.0000 0.39320  0.78720  0.50670  Biso   1.000  O  -0.5928610989076755
  C28      1.0000 0.40500  0.85870  0.55220  Biso   1.000  C  0.6420061004973793
  C29      1.0000 0.45950  0.92760  0.48930  Biso   1.000  C  -0.0268337938721902
  C30      1.0000 0.45950  0.92760  0.36930  Biso   1.000  C  -0.1646846407467549
  H10      1.0000 0.42960  0.87410  0.32480  Biso   1.000  H  0.1212905630639314
  O21      1.0000 0.62330  0.12040  0.64360  Biso   1.000  O  -0.5796466511302386
  O22      1.0000 0.60680  0.21280  0.50670  Biso   1.000  O  -0.5928610989076755
  C31      1.0000 0.59500  0.14130  0.55220  Biso   1.000  C  0.6420061004973793
  C32      1.0000 0.54050  0.07240  0.48930  Biso   1.000  C  -0.0268337938721902
  C33      1.0000 0.54050  0.07240  0.36930  Biso   1.000  C  -0.1646846407467549
  H11      1.0000 0.57040  0.12590  0.32480  Biso   1.000  H  0.1212905630639314
  O23      1.0000 0.12330  0.62040  0.14360  Biso   1.000  O  -0.5796466511302386
  O24      1.0000 0.10680  0.71280  0.00670  Biso   1.000  O  -0.5928610989076755
  C34      1.0000 0.09500  0.64130  0.05220  Biso   1.000  C  0.6420061004973793
  C35      1.0000 0.04050  0.57240  0.98930  Biso   1.000  C  -0.0268337938721902
  C36      1.0000 0.04050  0.57240  0.86930  Biso   1.000  C  -0.1646846407467549
  H12      1.0000 0.07040  0.62590  0.82480  Biso   1.000  H  0.1212905630639314
  O25      1.0000 0.87960  0.12330  0.89360  Biso   1.000  O  -0.5796466511302386
  O26      1.0000 0.78720  0.10680  0.75670  Biso   1.000  O  -0.5928610989076755
  C37      1.0000 0.85870  0.09500  0.80220  Biso   1.000  C  0.6420061004973793
  C38      1.0000 0.92760  0.04050  0.73930  Biso   1.000  C  -0.0268337938721902
  C39      1.0000 0.92760  0.04050  0.61930  Biso   1.000  C  -0.1646846407467549
  H13      1.0000 0.87410  0.07040  0.57480  Biso   1.000  H  0.1212905630639314
  O27      1.0000 0.37960  0.62330  0.39360  Biso   1.000  O  -0.5796466511302386
  O28      1.0000 0.28720  0.60680  0.25670  Biso   1.000  O  -0.5928610989076755
  C40      1.0000 0.35870  0.59500  0.30220  Biso   1.000  C  0.6420061004973793
  C41      1.0000 0.42760  0.54050  0.23930  Biso   1.000  C  -0.0268337938721902
  C42      1.0000 0.42760  0.54050  0.11930  Biso   1.000  C  -0.1646846407467549
  H14      1.0000 0.37410  0.57040  0.07480  Biso   1.000  H  0.1212905630639314
  O29      1.0000 0.62040  0.37670  0.39360  Biso   1.000  O  -0.5796466511302386
  O30      1.0000 0.71280  0.39320  0.25670  Biso   1.000  O  -0.5928610989076755
  C43      1.0000 0.64130  0.40500  0.30220  Biso   1.000  C  0.6420061004973793
  C44      1.0000 0.57240  0.45950  0.23930  Biso   1.000  C  -0.0268337938721902
  C45      1.0000 0.57240  0.45950  0.11930  Biso   1.000  C  -0.1646846407467549
  H15      1.0000 0.62590  0.42960  0.07480  Biso   1.000  H  0.1212905630639314
  O31      1.0000 0.12040  0.87670  0.89360  Biso   1.000  O  -0.5796466511302386
  O32      1.0000 0.21280  0.89320  0.75670  Biso   1.000  O  -0.5928610989076755
  C46      1.0000 0.14130  0.90500  0.80220  Biso   1.000  C  0.6420061004973793
  C47      1.0000 0.07240  0.95950  0.73930  Biso   1.000  C  -0.0268337938721902
  C48      1.0000 0.07240  0.95950  0.61930  Biso   1.000  C  -0.1646846407467549
  H16      1.0000 0.12590  0.92960  0.57480  Biso   1.000  H  0.1212905630639314
  Al1      1.0000 0.69600  0.30400  0.50000  Biso   1.000  Al  1.6829918989203556
  Al2      1.0000 0.19600  0.80400  0.00000  Biso   1.000  Al  1.6829918989203556
  Al3      1.0000 0.80400  0.19600  0.00000  Biso   1.000  Al  1.6829918989203556
  Al4      1.0000 0.30400  0.69600  0.50000  Biso   1.000  Al  1.6829918989203556
  Al5      1.0000 0.69600  0.19600  0.75000  Biso   1.000  Al  1.6829918989203556
  Al6      1.0000 0.19600  0.69600  0.25000  Biso   1.000  Al  1.6829918989203556
  Al7      1.0000 0.80400  0.30400  0.25000  Biso   1.000  Al  1.6829918989203556
  Al8      1.0000 0.30400  0.80400  0.75000  Biso   1.000  Al  1.6829918989203556
  O33      1.0000 0.74970  0.25000  0.62500  Biso   1.000  O  -1.0137050758828352
  H17      1.0000 0.81040  0.25000  0.62500  Biso   1.000  H  0.4479647974823582
  O34      1.0000 0.24970  0.75000  0.12500  Biso   1.000  O  -1.0137050758828352
  H18      1.0000 0.31040  0.75000  0.12500  Biso   1.000  H  0.4479647974823582
  O35      1.0000 0.75030  0.25000  0.12500  Biso   1.000  O  -1.0137050758828352
  H19      1.0000 0.68960  0.25000  0.12500  Biso   1.000  H  0.4479647974823582
  O36      1.0000 0.25030  0.75000  0.62500  Biso   1.000  O  -1.0137050758828352
  H20      1.0000 0.18960  0.75000  0.62500  Biso   1.000  H  0.4479647974823582
  O37      1.0000 0.75000  0.24970  0.87500  Biso   1.000  O  -1.0137050758828352
  H21      1.0000 0.75000  0.31040  0.87500  Biso   1.000  H  0.4479647974823582
  O38      1.0000 0.25000  0.74970  0.37500  Biso   1.000  O  -1.0137050758828352
  H22      1.0000 0.25000  0.81040  0.37500  Biso   1.000  H  0.4479647974823582
  O39      1.0000 0.75000  0.25030  0.37500  Biso   1.000  O  -1.0137050758828352
  H23      1.0000 0.75000  0.18960  0.37500  Biso   1.000  H  0.4479647974823582
  O40      1.0000 0.25000  0.75030  0.87500  Biso   1.000  O  -1.0137050758828352
  H24      1.0000 0.25000  0.68960  0.87500  Biso   1.000  H  0.4479647974823582
  C49      1.0000 0.50000  0.50000  0.70070  Biso   1.000  C  -0.1371254702461723
  C50      1.0000 0.50000  0.50000  0.94080  Biso   1.000  C  0.0935155677754261
  H25      1.0000 0.50000  0.50000  0.61180  Biso   1.000  H  0.1278173241419645
  C51      1.0000 0.00000  0.00000  0.20070  Biso   1.000  C  -0.1371254702461723
  C52      1.0000 0.00000  0.00000  0.44080  Biso   1.000  C  0.0935155677754261
  H26      1.0000 0.00000  0.00000  0.11180  Biso   1.000  H  0.1278173241419645
  C53      1.0000 0.50000  0.00000  0.95070  Biso   1.000  C  -0.1371254702461723
  C54      1.0000 0.50000  0.00000  0.19080  Biso   1.000  C  0.0935155677754261
  H27      1.0000 0.50000  0.00000  0.86180  Biso   1.000  H  0.1278173241419645
  C55      1.0000 0.00000  0.50000  0.45070  Biso   1.000  C  -0.1371254702461723
  C56      1.0000 0.00000  0.50000  0.69080  Biso   1.000  C  0.0935155677754261
  H28      1.0000 0.00000  0.50000  0.36180  Biso   1.000  H  0.1278173241419645
  C57      1.0000 0.00000  0.50000  0.04930  Biso   1.000  C  -0.1371254702461723
  C58      1.0000 0.00000  0.50000  0.80920  Biso   1.000  C  0.0935155677754261
  H29      1.0000 0.00000  0.50000  0.13820  Biso   1.000  H  0.1278173241419645
  C59      1.0000 0.50000  0.00000  0.54930  Biso   1.000  C  -0.1371254702461723
  C60      1.0000 0.50000  0.00000  0.30920  Biso   1.000  C  0.0935155677754261
  H30      1.0000 0.50000  0.00000  0.63820  Biso   1.000  H  0.1278173241419645
  C61      1.0000 0.00000  0.00000  0.79930  Biso   1.000  C  -0.1371254702461723
  C62      1.0000 0.00000  0.00000  0.55920  Biso   1.000  C  0.0935155677754261
  H31      1.0000 0.00000  0.00000  0.88820  Biso   1.000  H  0.1278173241419645
  C63      1.0000 0.50000  0.50000  0.29930  Biso   1.000  C  -0.1371254702461723
  C64      1.0000 0.50000  0.50000  0.05920  Biso   1.000  C  0.0935155677754261
  H32      1.0000 0.50000  0.50000  0.38820  Biso   1.000  H  0.1278173241419645
